LAMMPS (16 Mar 2018)
#lammps script for united atom polymer simulation (full-scale run)

# 1. INITIALIZATION
#allows pair, bond, bending and dihedral interactions
atom_style molecular

  # periodic (video game) boundaries in all cartesian directions
boundary p p s

  # uses real units (instead of units based on pair potential parameters).  List of units used in manual
units real

###########
# 2. ATOM DEFINITION
##########

   ##
   # Read in data from starting configuration file
   ##

#read_data chainconfig.dat

 #use to restart
read_restart RESTART
  orthogonal box = (-200 -200 0) to (200 200 248.000)
  196 atoms
  195 bonds
  194 angles
  193 dihedrals

   ##
   # Specify the nature of the bond interactions
   ##

bond_style harmonic
bond_coeff 1 450 1.54

special_bonds lj 0.0 0.0 0.0 angle no dihedral no

angle_style harmonic
angle_coeff 1 62.1  114.00

dihedral_style opls
dihedral_coeff * 1.4110 -0.2708 3.143 0.0

mass * 14.0

pair_style lj/cut 14.0
pair_coeff 1 1 0.0912 3.95 14.0
#pair_modify tail yes

group freeze type 2
12 atoms in group freeze
fix startend freeze setforce 0.0 0.0 0.0

################
# 3.  Simulation Settings
###############

neighbor        2.0 bin
neigh_modify    every 1 delay 0 check yes

# Define some variables
variable Lx          equal xhi-xlo   # Ang
variable Ly          equal yhi-ylo   # Ang
variable Lz          equal zhi-zlo   # Ang

variable dz          equal 248.0/30

variable zzlo        equal zlo  # Ang
variable zzhi        equal zhi  # Ang
variable vol         equal 400*400*248.000
variable TEMP        equal 300.00 # K
variable TThi        equal 320.00 # K
variable TTlo        equal 280.00 # K
variable dt          equal 1.25 # fs

timestep     1.25

variable zlo1      equal 0+8.2666
variable zlo2      equal 0+2*8.2666
variable zhi1      equal 0+28*8.2666
variable zhi2      equal 0+29*8.2666

# heat layers

compute         Thot all temp/region hot
compute         Tcold all temp/region cold

# 1st equilibration run
fix             1 all nvt temp 300 300 50
thermo          100
run             1000
Unused restart file peratom fix info:
  fix style: STORE, fix ID: layers_COMPUTE_STORE
  update every 1 steps, delay 0 steps, check yes
Step Temp E_pair E_mol TotEng Press
164025000    287.24417    95829.155     168.4975    96164.615      663.916
Averages over the last 6 of 11 rows, steps 164025500 to 164026000:
Temp E_pair E_mol TotEng Press
294.08 95829.2 181.486 96181.6 663.498
Loop time of 0.0637485 on 24 procs for 1000 steps with 196 atoms

velocity        all scale 300
unfix           1

# Second Equilibration
fix             1 all nve
fix             hot all langevin 320 320  50.0 59804  tally yes
fix             cold all langevin 280 280 50.0 287859 tally yes
fix_modify      hot temp Thot
fix_modify      cold temp Tcold

variable        tdiff equal c_Thot-c_Tcold
thermo_style    custom step c_Thot c_Tcold f_hot f_cold v_tdiff
thermo            4000
run             800000
Step c_Thot c_Tcold f_hot f_cold v_tdiff
164026000    456.84924    441.65383           -0           -0    15.195412
Averages over the last 101 of 202 rows, steps 164428000 to 164826000:
c_Thot c_Tcold f_hot f_cold v_tdiff
396.618 324.52 -911.691 934.928 72.0982
Loop time of 62.1945 on 24 procs for 800000 steps with 196 atoms

unfix 1

# PRODUCTION

fix             1 all nve
fix             hot all langevin 320 320  50.0 59804  tally yes
fix             cold all langevin 280 280 50.0 287859 tally yes
fix_modify      hot temp Thot
fix_modify      cold temp Tcold

variable        tdiff equal c_Thot-c_Tcold
thermo          4000

dump gigo all atom 4000 dump.cords_xyz.dat
dump_modify gigo scale no
dump vfgigo all custom 4000 dump.velo.dat id vx vy vz fx fy fz

# thermal conductivity calculation
# # reset langevin thermostats to zero energy accumulation
#
compute         ke all ke/atom
variable        temp atom c_ke/1.5/0.0019872

fix             ave all ave/time 100 40 4000 v_tdiff ave running
thermo_style    custom step temp c_Thot c_Tcold f_hot f_cold v_tdiff f_ave

#compute         layers all chunk/atom bin/1d z lower 0.05 units reduced
compute         layers all chunk/atom bin/1d z lower 8.2572 units box
fix             2 all ave/chunk  100 40 4000 layers v_temp file profile.langevin

run             32000000
Step Temp c_Thot c_Tcold f_hot f_cold v_tdiff f_ave
164826000    288.59589    532.68696    351.86192           -0           -0    180.82504            0
Averages over the last 4001 of 8002 rows, steps 180828000 to 196826000:
Temp c_Thot c_Tcold f_hot f_cold v_tdiff f_ave
282.724 375.295 340.038 -41364.7 41370.3 35.2567 38.8027
Loop time of 2523.74 on 24 procs for 32000000 steps with 196 atoms

write_restart FINALCONFIG

#and everyone lived happily ever after, THE END
